Program Version,EnergyPlus, Version 24.1.0-9d7789a3ac, YMD=2025.06.12 18:41
! <Version>, Version ID
 Version, 24.1
! <Timesteps per Hour>, #TimeSteps, Minutes per TimeStep {minutes}
 Timesteps per Hour,  4, 15
! <System Convergence Limits>, Minimum System TimeStep {minutes}, Max HVAC Iterations, Minimum Plant Iterations, Maximum Plant Iterations
 System Convergence Limits, 1, 20, 2, 8
! <Simulation Control>, Do Zone Sizing, Do System Sizing, Do Plant Sizing, Do Design Days, Do Weather Simulation, Do HVAC Sizing Simulation
 Simulation Control, No, No, No, No, Yes, No
! <Performance Precision Tradeoffs>, Use Coil Direct Simulation, Zone Radiant Exchange Algorithm, Override Mode, Number of Timestep In Hour, Force Euler Method, Minimum Number of Warmup Days, Force Suppress All Begin Environment Resets, Minimum System Timestep, MaxZoneTempDiff, MaxAllowedDelTemp
 Performance Precision Tradeoffs, No, ScriptF, Normal, 4, No, 1, No, 1.0, 0.300, 2.0000E-003
! <Output Reporting Tolerances>, Tolerance for Time Heating Setpoint Not Met, Tolerance for Zone Cooling Setpoint Not Met Time
 Output Reporting Tolerances, 0.200, 0.200, 
! <Site:GroundTemperature:BuildingSurface>,Jan{C},Feb{C},Mar{C},Apr{C},May{C},Jun{C},Jul{C},Aug{C},Sep{C},Oct{C},Nov{C},Dec{C}
 Site:GroundTemperature:BuildingSurface,  18.00,  18.00,  18.00,  18.00,  18.00,  18.00,  18.00,  18.00,  18.00,  18.00,  18.00,  18.00
! <Site:GroundTemperature:FCfactorMethod>,Jan{C},Feb{C},Mar{C},Apr{C},May{C},Jun{C},Jul{C},Aug{C},Sep{C},Oct{C},Nov{C},Dec{C}
 Site:GroundTemperature:FCfactorMethod,   0.36,   2.33,   6.17,   9.79,  16.66,  20.28,  21.27,  19.44,  15.20,   9.93,   4.73,   1.30
! <Site:GroundTemperature:Shallow>,Jan{C},Feb{C},Mar{C},Apr{C},May{C},Jun{C},Jul{C},Aug{C},Sep{C},Oct{C},Nov{C},Dec{C}
 Site:GroundTemperature:Shallow,  13.00,  13.00,  13.00,  13.00,  13.00,  13.00,  13.00,  13.00,  13.00,  13.00,  13.00,  13.00
! <Site:GroundTemperature:Deep>,Jan{C},Feb{C},Mar{C},Apr{C},May{C},Jun{C},Jul{C},Aug{C},Sep{C},Oct{C},Nov{C},Dec{C}
 Site:GroundTemperature:Deep,  16.00,  16.00,  16.00,  16.00,  16.00,  16.00,  16.00,  16.00,  16.00,  16.00,  16.00,  16.00
! <Site:GroundReflectance>,Jan{dimensionless},Feb{dimensionless},Mar{dimensionless},Apr{dimensionless},May{dimensionless},Jun{dimensionless},Jul{dimensionless},Aug{dimensionless},Sep{dimensionless},Oct{dimensionless},Nov{dimensionless},Dec{dimensionless}
 Site:GroundReflectance,  0.20,  0.20,  0.20,  0.20,  0.20,  0.20,  0.20,  0.20,  0.20,  0.20,  0.20,  0.20
! <Site:GroundReflectance:SnowModifier>, Normal, Daylighting {dimensionless}
 Site:GroundReflectance:SnowModifier,   1.000,   1.000
! <Site:GroundReflectance:Snow>,Jan{dimensionless},Feb{dimensionless},Mar{dimensionless},Apr{dimensionless},May{dimensionless},Jun{dimensionless},Jul{dimensionless},Aug{dimensionless},Sep{dimensionless},Oct{dimensionless},Nov{dimensionless},Dec{dimensionless}
 Site:GroundReflectance:Snow,  0.20,  0.20,  0.20,  0.20,  0.20,  0.20,  0.20,  0.20,  0.20,  0.20,  0.20,  0.20
! <Site:GroundReflectance:Snow:Daylighting>,Jan{dimensionless},Feb{dimensionless},Mar{dimensionless},Apr{dimensionless},May{dimensionless},Jun{dimensionless},Jul{dimensionless},Aug{dimensionless},Sep{dimensionless},Oct{dimensionless},Nov{dimensionless},Dec{dimensionless}
 Site:GroundReflectance:Snow:Daylighting,  0.20,  0.20,  0.20,  0.20,  0.20,  0.20,  0.20,  0.20,  0.20,  0.20,  0.20,  0.20
! <Environment:Weather Station>,Wind Sensor Height Above Ground {m},Wind Speed Profile Exponent {},Wind Speed Profile Boundary Layer Thickness {m},Air Temperature Sensor Height Above Ground {m},Wind Speed Modifier Coefficient-Internal,Temperature Modifier Coefficient-Internal
Environment:Weather Station,10.000,0.140,270.000,1.500,1.586,9.750E-003
! <Site:Location>, Location Name, Latitude {N+/S- Deg}, Longitude {E+/W- Deg},  Time Zone Number {GMT+/-}, Elevation {m},  Standard Pressure at Elevation {Pa}, Standard RhoAir at Elevation
Site:Location,Denver Intl Ap CO USA TMY3 WMO#=725650,39.83,-104.65,-7.00,1650.00,83011,0.9866
! <Site Water Mains Temperature Information>,Calculation Method{},Water Mains Temperature Schedule Name{},Annual Average Outdoor Air Temperature{C},Maximum Difference In Monthly Average Outdoor Air Temperatures{deltaC},Fixed Default Water Mains Temperature{C}
Site Water Mains Temperature Information,FixedDefault,NA,NA,NA,10.0
! <Building Information>, Building Name,North Axis {deg},Terrain,  Loads Convergence Tolerance Value,Temperature Convergence Tolerance Value,  Solar Distribution,Maximum Number of Warmup Days,Minimum Number of Warmup Days
 Building Information,Large Hotel,0.000,Suburbs,4.00000E-002,0.40000,FullExterior,25,1
! <Inside Convection Algorithm>, Algorithm {Simple | TARP | CeilingDiffuser | AdaptiveConvectionAlgorithm}
Inside Convection Algorithm,TARP
! <Outside Convection Algorithm>, Algorithm {SimpleCombined | TARP | MoWitt | DOE-2 | AdaptiveConvectionAlgorithm}
Outside Convection Algorithm,DOE-2
! <Sky Radiance Distribution>, Value {Anisotropic}
Sky Radiance Distribution,Anisotropic
! <Zone Air Solution Algorithm>, Algorithm {ThirdOrderBackwardDifference | AnalyticalSolution | EulerMethod}, Space Heat Balance Sizing, Space Heat Balance Simulation
 Zone Air Solution Algorithm, AnalyticalSolution, No, No
! <Zone Air Carbon Dioxide Balance Simulation>, Simulation {Yes/No}, Carbon Dioxide Concentration
 Zone Air Carbon Dioxide Balance Simulation, No,N/A
! <Zone Air Generic Contaminant Balance Simulation>, Simulation {Yes/No}, Generic Contaminant Concentration
 Zone Air Generic Contaminant Balance Simulation, No,N/A
! <Zone Air Mass Flow Balance Simulation>, Enforce Mass Balance, Adjust Zone Mixing and Return {AdjustMixingOnly | AdjustReturnOnly | AdjustMixingThenReturn | AdjustReturnThenMixing | None}, Adjust Zone Infiltration {AddInfiltration | AdjustInfiltration | None}, Infiltration Zones {MixingSourceZonesOnly | AllZones}
 Zone Air Mass Flow Balance Simulation, No,N/A,N/A,N/A
! <HVACSystemRootFindingAlgorithm>, Value {RegulaFalsi | Bisection | BisectionThenRegulaFalsi | RegulaFalsiThenBisection}
 HVACSystemRootFindingAlgorithm, RegulaFalsi
! <Environment:Site Atmospheric Variation>,Wind Speed Profile Exponent {},Wind Speed Profile Boundary Layer Thickness {m},Air Temperature Gradient Coefficient {K/m}
Environment:Site Atmospheric Variation,0.220,370.000,6.500000E-003
! <Surface Geometry>,Starting Corner,Vertex Input Direction,Coordinate System,Daylight Reference Point Coordinate System,Rectangular (Simple) Surface Coordinate System
 Surface Geometry,UpperLeftCorner,Counterclockwise,RelativeCoordinateSystem,RelativeCoordinateSystem,RelativeToZoneOrigin
! <Surface Heat Transfer Algorithm>, Value {CTF - ConductionTransferFunction | EMPD - MoisturePenetrationDepthConductionTransferFunction | CondFD - ConductionFiniteDifference | HAMT - CombinedHeatAndMoistureFiniteElement} - Description,Inside Surface Max Temperature Limit{C}, Surface Convection Coefficient Lower Limit {W/m2-K}, Surface Convection Coefficient Upper Limit {W/m2-K}
Surface Heat Transfer Algorithm, CTF - ConductionTransferFunction,200,0.10,1000.0
! <Shading Summary>, Number of Fixed Detached Shades, Number of Building Detached Shades, Number of Attached Shades
 Shading Summary,0,0,0
! <Zone Summary>, Number of Zones, Number of Zone Surfaces, Number of SubSurfaces
 Zone Summary,4,29,5
! <Zone Information>,Zone Name,North Axis {deg},Origin X-Coordinate {m},Origin Y-Coordinate {m},Origin Z-Coordinate {m},Centroid X-Coordinate {m},Centroid Y-Coordinate {m},Centroid Z-Coordinate {m},Type,Zone Multiplier,Zone List Multiplier,Minimum X {m},Maximum X {m},Minimum Y {m},Maximum Y {m},Minimum Z {m},Maximum Z {m},Ceiling Height {m},Volume {m3},Zone Inside Convection Algorithm {Simple-Detailed-CeilingDiffuser-TrombeWall},Zone Outside Convection Algorithm {Simple-Detailed-Tarp-MoWitt-DOE-2-BLAST}, Floor Area {m2},Exterior Gross Wall Area {m2},Exterior Net Wall Area {m2},Exterior Window Area {m2}, Number of Surfaces, Number of SubSurfaces, Number of Shading SubSurfaces,  Part of Total Building Area
 Zone Information, THERMAL ZONE: SPACE 101,0.0,1.67,7.35,0.00,3.25,4.07,1.52,1,1,1,1.67,4.83,0.80,7.35,0.00,3.05,3.05,63.10,TARP,DOE-2,20.70,39.23,37.09,1.85,6,1,0,Yes
 Zone Information, THERMAL ZONE: SPACE 102,0.0,4.83,7.35,0.00,6.42,4.07,1.52,1,1,1,4.83,8.00,0.80,7.35,0.00,3.05,3.05,63.10,TARP,DOE-2,20.70,19.28,15.59,0.00,6,1,0,Yes
 Zone Information, THERMAL ZONE: SPACE 103,0.0,8.00,7.35,0.00,9.58,4.07,1.52,1,1,1,8.00,11.16,0.80,7.35,0.00,3.05,3.05,63.10,TARP,DOE-2,20.70,19.28,18.31,1.38,6,2,0,Yes
 Zone Information, THERMAL ZONE: SPACE 104,0.0,14.32,0.80,0.00,12.74,4.07,1.52,1,1,1,11.16,14.32,0.80,7.35,0.00,3.05,3.05,63.10,TARP,DOE-2,20.70,39.23,37.98,1.04,6,1,0,Yes
! <Zone Internal Gains Nominal>,Zone Name, Floor Area {m2},# Occupants,Area per Occupant {m2/person},Occupant per Area {person/m2},Interior Lighting {W/m2},Electric Load {W/m2},Gas Load {W/m2},Other Load {W/m2},Hot Water Eq {W/m2},Steam Equipment {W/m2},Sum Loads per Area {W/m2},Outdoor Controlled Baseboard Heat
 Zone Internal Gains Nominal, THERMAL ZONE: SPACE 101,20.70,14.9,1.387,0.721,27.125,0.000,0.000,0.000,0.000,0.000,27.125,No
 Zone Internal Gains Nominal, THERMAL ZONE: SPACE 102,20.70,14.9,1.387,0.721,36.748,2.799,0.000,0.000,0.000,0.000,39.546,No
 Zone Internal Gains Nominal, THERMAL ZONE: SPACE 103,20.70,6.7,3.097,0.323,24.219,4.090,0.000,0.000,0.000,0.000,28.309,No
 Zone Internal Gains Nominal, THERMAL ZONE: SPACE 104,20.70,14.9,1.387,0.721,27.125,0.000,0.000,0.000,0.000,0.000,27.125,No
! <People Internal Gains Nominal>,Name,Schedule Name,Zone Name,Zone Floor Area {m2},# Zone Occupants,Number of People {},People/Floor Area {person/m2},Floor Area per person {m2/person},Fraction Radiant,Fraction Convected,Sensible Fraction Calculation,Activity level,ASHRAE 55 Warnings,Carbon Dioxide Generation Rate,Nominal Minimum Number of People,Nominal Maximum Number of People
 People Internal Gains Nominal, SPACE 101 ASHRAE_189.1-2009_CLIMATEZONE 1-3_LARGEHOTEL_BANQUET_PEOPINST,LARGEHOTEL_BLDG_OCC,THERMAL ZONE: SPACE 101,20.70,14.9,14.9,0.721,1.387,0.300,0.700,AutoCalculate,LARGEHOTEL_ACTIVITY,No,3.8200E-008,0,15
 People Internal Gains Nominal, SPACE 104 ASHRAE_189.1-2009_CLIMATEZONE 1-3_LARGEHOTEL_BANQUET_PEOPINST,LARGEHOTEL_BLDG_OCC,THERMAL ZONE: SPACE 104,20.70,14.9,14.9,0.721,1.387,0.300,0.700,AutoCalculate,LARGEHOTEL_ACTIVITY,No,3.8200E-008,0,15
 People Internal Gains Nominal, SPACE 102 ASHRAE_189.1-2009_CLIMATEZONE 1-3_LARGEHOTEL_CAFE_PEOPINST,LARGEHOTEL_BLDG_OCC,THERMAL ZONE: SPACE 102,20.70,14.9,14.9,0.721,1.387,0.300,0.700,AutoCalculate,LARGEHOTEL_ACTIVITY,No,3.8200E-008,0,15
 People Internal Gains Nominal, SPACE 103 (EXTRA LIGHT IN SPACE DIFF SCHEDULE) ASHRAE_189.1-2009_CLIMATEZONE 1-3_LARGEHOTEL_LOBBY_PEOPINST,LARGEHOTEL_LOBBY_OCC,THERMAL ZONE: SPACE 103,20.70,6.7,6.7,0.323,3.097,0.300,0.700,AutoCalculate,LARGEHOTEL_ACTIVITY,No,3.8200E-008,0,7
! <Lights Internal Gains Nominal>,Name,Schedule Name,Zone Name,Zone Floor Area {m2},# Zone Occupants,Lighting Level {W},Lights/Floor Area {W/m2},Lights per person {W/person},Fraction Return Air,Fraction Radiant,Fraction Short Wave,Fraction Convected,Fraction Replaceable,End-Use Category,Nominal Minimum Lighting Level {W},Nominal Maximum Lighting Level {W}
 Lights Internal Gains Nominal, SPACE 101 ASHRAE_189.1-2009_CLIMATEZONE 1-3_LARGEHOTEL_BANQUET_LIGHTSINST,LARGEHOTEL_LAUNDRYROOM_GAS,THERMAL ZONE: SPACE 101,20.70,14.9,260.700,12.594,17.463,0.000,0.000,0.000,1.000,1.000,Lights,0.000,260.700
 Lights Internal Gains Nominal, SPACE 104 ASHRAE_189.1-2009_CLIMATEZONE 1-3_LARGEHOTEL_BANQUET_LIGHTSINST,LARGEHOTEL_LAUNDRYROOM_GAS,THERMAL ZONE: SPACE 104,20.70,14.9,260.700,12.594,17.463,0.000,0.000,0.000,1.000,1.000,Lights,0.000,260.700
 Lights Internal Gains Nominal, SPACE 101 LIGHTS 1,LARGEHOTEL_BLDG_EQUIP,THERMAL ZONE: SPACE 101,20.70,14.9,300.807,14.531,20.149,0.000,0.000,0.000,1.000,1.000,General,0.000,300.807
 Lights Internal Gains Nominal, SPACE 104 LIGHTS 1,LARGEHOTEL_BLDG_EQUIP,THERMAL ZONE: SPACE 104,20.70,14.9,300.807,14.531,20.149,0.000,0.000,0.000,1.000,1.000,General,0.000,300.807
 Lights Internal Gains Nominal, SPACE 102 ASHRAE_189.1-2009_CLIMATEZONE 1-3_LARGEHOTEL_CAFE_LIGHTSINST,LARGEHOTEL_BLDG_LIGHT,THERMAL ZONE: SPACE 102,20.70,14.9,260.700,12.594,17.463,0.000,0.000,0.000,1.000,1.000,Lights,0.000,260.700
 Lights Internal Gains Nominal, SPACE 102 LIGHTS 3,LARGEHOTEL_BLDG_LIGHT,THERMAL ZONE: SPACE 102,20.70,14.9,500.000,24.154,33.492,0.000,0.000,0.000,1.000,1.000,General,0.000,500.000
 Lights Internal Gains Nominal, SPACE 103 (EXTRA LIGHT IN SPACE DIFF SCHEDULE) LIGHTS 4,LARGEHOTEL_BLDG_LIGHT,THERMAL ZONE: SPACE 103,20.70,6.7,240.646,11.625,36.000,0.000,0.000,0.000,1.000,1.000,General,0.000,240.646
 Lights Internal Gains Nominal, LIGHTS 5,LARGEHOTEL_LAUNDRYROOM_GAS,THERMAL ZONE: SPACE 103,20.70,6.7,260.700,12.594,39.000,0.000,0.000,0.000,1.000,1.000,General,0.000,260.700
! <ElectricEquipment Internal Gains Nominal>,Name,Schedule Name,Zone Name,Zone Floor Area {m2},# Zone Occupants,Equipment Level {W},Equipment/Floor Area {W/m2},Equipment per person {W/person},Fraction Latent,Fraction Radiant,Fraction Lost,Fraction Convected,End-Use SubCategory,Nominal Minimum Equipment Level {W},Nominal Maximum Equipment Level {W}
 ElectricEquipment Internal Gains Nominal, SPACE 102 ASHRAE_189.1-2009_CLIMATEZONE 1-3_LARGEHOTEL_CAFE_ELECINST,LARGEHOTEL_BLDG_EQUIP,THERMAL ZONE: SPACE 102,20.70,14.9,57.933,2.799,3.881,0.000,0.000,0.000,1.000,ElectricEquipment,0.000,57.933
 ElectricEquipment Internal Gains Nominal, SPACE 103 (EXTRA LIGHT IN SPACE DIFF SCHEDULE) ASHRAE_189.1-2009_CLIMATEZONE 1-3_LARGEHOTEL_LOBBY_ELECINST,LARGEHOTEL_BLDG_EQUIP,THERMAL ZONE: SPACE 103,20.70,6.7,84.672,4.090,12.667,0.000,0.000,0.000,1.000,ElectricEquipment,0.000,84.672
! <Shadowing/Sun Position Calculations Annual Simulations>, Shading Calculation Method, Shading Calculation Update Frequency Method, Shading Calculation Update Frequency {days}, Maximum Figures in Shadow Overlap Calculations {}, Polygon Clipping Algorithm, Pixel Counting Resolution, Sky Diffuse Modeling Algorithm, Output External Shading Calculation Results, Disable Self-Shading Within Shading Zone Groups, Disable Self-Shading From Shading Zone Groups to Other Zones
Shadowing/Sun Position Calculations Annual Simulations,PolygonClipping,Periodic,7,15000,SutherlandHodgman,512,SimpleSkyDiffuseModeling,No,No,No
! <ZoneInfiltration Airflow Stats Nominal>,Name,Schedule Name,Zone Name, Zone Floor Area {m2}, # Zone Occupants,Design Volume Flow Rate {m3/s},Volume Flow Rate/Floor Area {m3/s-m2},Volume Flow Rate/Exterior Surface Area {m3/s-m2},ACH - Air Changes per Hour,Equation A - Constant Term Coefficient {},Equation B - Temperature Term Coefficient {1/C},Equation C - Velocity Term Coefficient {s/m}, Equation D - Velocity Squared Term Coefficient {s2/m2}
 ZoneInfiltration Airflow Stats Nominal, SPACE 101 ASHRAE_189.1-2009_CLIMATEZONE 1-3_LARGEHOTEL_BANQUET_INFIL,LARGEHOTEL_INFIL_QUARTER_ON,THERMAL ZONE: SPACE 101,20.70,14.9,2.804E-003,1.355E-004,4.679E-005,0.160,1.000,0.000,0.000,0.000
 ZoneInfiltration Airflow Stats Nominal, SPACE 104 ASHRAE_189.1-2009_CLIMATEZONE 1-3_LARGEHOTEL_BANQUET_INFIL,LARGEHOTEL_INFIL_QUARTER_ON,THERMAL ZONE: SPACE 104,20.70,14.9,2.804E-003,1.355E-004,4.679E-005,0.160,1.000,0.000,0.000,0.000
 ZoneInfiltration Airflow Stats Nominal, SPACE 102 ASHRAE_189.1-2009_CLIMATEZONE 1-3_LARGEHOTEL_CAFE_INFIL,LARGEHOTEL_INFIL_QUARTER_ON,THERMAL ZONE: SPACE 102,20.70,14.9,2.804E-003,1.355E-004,6.422E-005,0.160,1.000,0.000,0.000,0.000
 ZoneInfiltration Airflow Stats Nominal, SPACE 103 (EXTRA LIGHT IN SPACE DIFF SCHEDULE) ASHRAE_189.1-2009_CLIMATEZONE 1-3_LARGEHOTEL_LOBBY_INFIL,LARGEHOTEL_INFIL_QUARTER_ON,THERMAL ZONE: SPACE 103,20.70,6.7,2.804E-003,1.355E-004,7.014E-005,0.160,1.000,0.000,0.000,0.000
! <AirFlow Model>, Simple
 AirFlow Model, Simple
! <RoomAir Model>, Zone Name, Mixing/Mundt/UCSDDV/UCSDCV/UCSDUFI/UCSDUFE/User Defined
RoomAir Model,THERMAL ZONE: SPACE 101,Mixing/Well-Stirred
RoomAir Model,THERMAL ZONE: SPACE 102,Mixing/Well-Stirred
RoomAir Model,THERMAL ZONE: SPACE 103,Mixing/Well-Stirred
RoomAir Model,THERMAL ZONE: SPACE 104,Mixing/Well-Stirred
! <AirflowNetwork Model:Control>, No Multizone or Distribution/Multizone with Distribution/Multizone without Distribution/Multizone with Distribution only during Fan Operation
AirflowNetwork Model:Control,NoMultizoneOrDistribution
! <Zone Volume Capacitance Multiplier>, Sensible Heat Capacity Multiplier, Moisture Capacity Multiplier, Carbon Dioxide Capacity Multiplier, Generic Contaminant Capacity Multiplier
Zone Volume Capacitance Multiplier,   1.000 ,   1.000,   1.000,   1.000
! <Environment>,Environment Name,Environment Type, Start Date, End Date, Start DayOfWeek, Duration {#days}, Source:Start DayOfWeek,  Use Daylight Saving, Use Holidays, Apply Weekend Holiday Rule,  Use Rain Values, Use Snow Values, Sky Temperature Model
! <Environment:Special Days>, Special Day Name, Special Day Type, Source, Start Date, Duration {#days}
! <Environment:Daylight Saving>, Daylight Saving Indicator, Source, Start Date, End Date
! <Environment:WarmupDays>, NumberofWarmupDays
Environment,RUN PERIOD 1,WeatherFileRunPeriod,01/01/2006,12/31/2006,Sunday,365,Use RunPeriod Specified Day,No,No,No,Yes,Yes,Clark and Allen
Environment:Daylight Saving,Yes,InputFile,03/12,11/05
Environment:Special Days,CHRISTMAS,Holiday,InputFile,12/25,  1
Environment:Special Days,COLUMBUS DAY,Holiday,InputFile,10/09,  1
Environment:Special Days,INDEPENDENCE DAY,Holiday,InputFile,07/04,  1
Environment:Special Days,LABOR DAY,Holiday,InputFile,09/04,  1
Environment:Special Days,MEMORIAL DAY,Holiday,InputFile,05/29,  1
Environment:Special Days,MLK DAY,Holiday,InputFile,01/16,  1
Environment:Special Days,NEW YEARS DAY,Holiday,InputFile,01/01,  1
Environment:Special Days,PRESIDENTS DAY,Holiday,InputFile,02/20,  1
Environment:Special Days,THANKSGIVING,Holiday,InputFile,11/23,  1
Environment:Special Days,VETERANS DAY,Holiday,InputFile,11/11,  1
Environment:WarmupDays,  4
! <Tabular Report>,Style,Unit Conversion
Tabular Report,HTML,None
! <Warmup Convergence Information>,Zone Name,Environment Type/Name,Average Warmup Temperature Difference {deltaC},Std Dev Warmup Temperature Difference {deltaC},Max Temperature Pass/Fail Convergence,Min Temperature Pass/Fail Convergence,Average Warmup Load Difference {W},Std Dev Warmup Load Difference {W},Heating Load Pass/Fail Convergence,Cooling Load Pass/Fail Convergence
 Warmup Convergence Information,THERMAL ZONE: SPACE 101,RunPeriod: RUN PERIOD 1,5.5887186192E-002,4.7086125347E-002,Pass,Pass,0.0000000000,0.0000000000,Pass,Pass
 Warmup Convergence Information,THERMAL ZONE: SPACE 102,RunPeriod: RUN PERIOD 1,5.7620308953E-002,3.2789067981E-002,Pass,Pass,0.0000000000,0.0000000000,Pass,Pass
 Warmup Convergence Information,THERMAL ZONE: SPACE 103,RunPeriod: RUN PERIOD 1,4.8631451653E-002,3.7560236250E-002,Pass,Pass,0.0000000000,0.0000000000,Pass,Pass
 Warmup Convergence Information,THERMAL ZONE: SPACE 104,RunPeriod: RUN PERIOD 1,0.1278069652,8.7110143242E-002,Pass,Pass,0.0000000000,0.0000000000,Pass,Pass
! <Program Control Information:Threads/Parallel Sims>, Threading Supported,Maximum Number of Threads, Env Set Threads (OMP_NUM_THREADS), EP Env Set Threads (EP_OMP_NUM_THREADS), IDF Set Threads, Number of Threads Used (Interior Radiant Exchange), Number Nominal Surfaces, Number Parallel Sims
Program Control:Threads/Parallel Sims, No,1, N/A, N/A, N/A, N/A, N/A, N/A
End of Data
