! Program Version,EnergyPlus, Version 24.1.0-9d7789a3ac, YMD=2025.06.12 18:37,
! Output:Meter Objects (applicable to this run)
Output:Meter,Electricity:Facility,hourly; !- [J]
Output:Meter:Cumulative,Electricity:Facility,hourly; !- [J]
Output:Meter,Electricity:Building,hourly; !- [J]
Output:Meter:Cumulative,Electricity:Building,hourly; !- [J]
Output:Meter,Electricity:Zone:THERMAL ZONE: SPACE 101,hourly; !- [J]
Output:Meter:Cumulative,Electricity:Zone:THERMAL ZONE: SPACE 101,hourly; !- [J]
Output:Meter,Electricity:SpaceType:MULTIPLE LIGHTS BOTH LPD DIFFERENT SCHEDULES,hourly; !- [J]
Output:Meter:Cumulative,Electricity:SpaceType:MULTIPLE LIGHTS BOTH LPD DIFFERENT SCHEDULES,hourly; !- [J]
Output:Meter,InteriorLights:Electricity,hourly; !- [J]
Output:Meter:Cumulative,InteriorLights:Electricity,hourly; !- [J]
Output:Meter,InteriorLights:Electricity:Zone:THERMAL ZONE: SPACE 101,hourly; !- [J]
Output:Meter:Cumulative,InteriorLights:Electricity:Zone:THERMAL ZONE: SPACE 101,hourly; !- [J]
Output:Meter,InteriorLights:Electricity:SpaceType:MULTIPLE LIGHTS BOTH LPD DIFFERENT SCHEDULES,hourly; !- [J]
Output:Meter:Cumulative,InteriorLights:Electricity:SpaceType:MULTIPLE LIGHTS BOTH LPD DIFFERENT SCHEDULES,hourly; !- [J]
Output:Meter,Lights:InteriorLights:Electricity,hourly; !- [J]
Output:Meter:Cumulative,Lights:InteriorLights:Electricity,hourly; !- [J]
Output:Meter,Lights:InteriorLights:Electricity:Zone:THERMAL ZONE: SPACE 101,hourly; !- [J]
Output:Meter:Cumulative,Lights:InteriorLights:Electricity:Zone:THERMAL ZONE: SPACE 101,hourly; !- [J]
Output:Meter,Lights:InteriorLights:Electricity:SpaceType:MULTIPLE LIGHTS BOTH LPD DIFFERENT SCHEDULES,hourly; !- [J]
Output:Meter:Cumulative,Lights:InteriorLights:Electricity:SpaceType:MULTIPLE LIGHTS BOTH LPD DIFFERENT SCHEDULES,hourly; !- [J]
Output:Meter,Electricity:Zone:THERMAL ZONE: SPACE 104,hourly; !- [J]
Output:Meter:Cumulative,Electricity:Zone:THERMAL ZONE: SPACE 104,hourly; !- [J]
Output:Meter,InteriorLights:Electricity:Zone:THERMAL ZONE: SPACE 104,hourly; !- [J]
Output:Meter:Cumulative,InteriorLights:Electricity:Zone:THERMAL ZONE: SPACE 104,hourly; !- [J]
Output:Meter,Lights:InteriorLights:Electricity:Zone:THERMAL ZONE: SPACE 104,hourly; !- [J]
Output:Meter:Cumulative,Lights:InteriorLights:Electricity:Zone:THERMAL ZONE: SPACE 104,hourly; !- [J]
Output:Meter,General:InteriorLights:Electricity,hourly; !- [J]
Output:Meter:Cumulative,General:InteriorLights:Electricity,hourly; !- [J]
Output:Meter,General:InteriorLights:Electricity:Zone:THERMAL ZONE: SPACE 101,hourly; !- [J]
Output:Meter:Cumulative,General:InteriorLights:Electricity:Zone:THERMAL ZONE: SPACE 101,hourly; !- [J]
Output:Meter,General:InteriorLights:Electricity:SpaceType:MULTIPLE LIGHTS BOTH LPD DIFFERENT SCHEDULES,hourly; !- [J]
Output:Meter:Cumulative,General:InteriorLights:Electricity:SpaceType:MULTIPLE LIGHTS BOTH LPD DIFFERENT SCHEDULES,hourly; !- [J]
Output:Meter,General:InteriorLights:Electricity:Zone:THERMAL ZONE: SPACE 104,hourly; !- [J]
Output:Meter:Cumulative,General:InteriorLights:Electricity:Zone:THERMAL ZONE: SPACE 104,hourly; !- [J]
Output:Meter,Electricity:Zone:THERMAL ZONE: SPACE 102,hourly; !- [J]
Output:Meter:Cumulative,Electricity:Zone:THERMAL ZONE: SPACE 102,hourly; !- [J]
Output:Meter,Electricity:SpaceType:MULTIPLELIGHTS ONE LPD ONE LOAD X5 MULTIPLIER SAME SCHEDULE,hourly; !- [J]
Output:Meter:Cumulative,Electricity:SpaceType:MULTIPLELIGHTS ONE LPD ONE LOAD X5 MULTIPLIER SAME SCHEDULE,hourly; !- [J]
Output:Meter,InteriorLights:Electricity:Zone:THERMAL ZONE: SPACE 102,hourly; !- [J]
Output:Meter:Cumulative,InteriorLights:Electricity:Zone:THERMAL ZONE: SPACE 102,hourly; !- [J]
Output:Meter,InteriorLights:Electricity:SpaceType:MULTIPLELIGHTS ONE LPD ONE LOAD X5 MULTIPLIER SAME SCHEDULE,hourly; !- [J]
Output:Meter:Cumulative,InteriorLights:Electricity:SpaceType:MULTIPLELIGHTS ONE LPD ONE LOAD X5 MULTIPLIER SAME SCHEDULE,hourly; !- [J]
Output:Meter,Lights:InteriorLights:Electricity:Zone:THERMAL ZONE: SPACE 102,hourly; !- [J]
Output:Meter:Cumulative,Lights:InteriorLights:Electricity:Zone:THERMAL ZONE: SPACE 102,hourly; !- [J]
Output:Meter,Lights:InteriorLights:Electricity:SpaceType:MULTIPLELIGHTS ONE LPD ONE LOAD X5 MULTIPLIER SAME SCHEDULE,hourly; !- [J]
Output:Meter:Cumulative,Lights:InteriorLights:Electricity:SpaceType:MULTIPLELIGHTS ONE LPD ONE LOAD X5 MULTIPLIER SAME SCHEDULE,hourly; !- [J]
Output:Meter,General:InteriorLights:Electricity:Zone:THERMAL ZONE: SPACE 102,hourly; !- [J]
Output:Meter:Cumulative,General:InteriorLights:Electricity:Zone:THERMAL ZONE: SPACE 102,hourly; !- [J]
Output:Meter,General:InteriorLights:Electricity:SpaceType:MULTIPLELIGHTS ONE LPD ONE LOAD X5 MULTIPLIER SAME SCHEDULE,hourly; !- [J]
Output:Meter:Cumulative,General:InteriorLights:Electricity:SpaceType:MULTIPLELIGHTS ONE LPD ONE LOAD X5 MULTIPLIER SAME SCHEDULE,hourly; !- [J]
Output:Meter,Electricity:Zone:THERMAL ZONE: SPACE 103,hourly; !- [J]
Output:Meter:Cumulative,Electricity:Zone:THERMAL ZONE: SPACE 103,hourly; !- [J]
Output:Meter,Electricity:SpaceType:SINGLE LIGHT LPD,hourly; !- [J]
Output:Meter:Cumulative,Electricity:SpaceType:SINGLE LIGHT LPD,hourly; !- [J]
Output:Meter,InteriorLights:Electricity:Zone:THERMAL ZONE: SPACE 103,hourly; !- [J]
Output:Meter:Cumulative,InteriorLights:Electricity:Zone:THERMAL ZONE: SPACE 103,hourly; !- [J]
Output:Meter,InteriorLights:Electricity:SpaceType:SINGLE LIGHT LPD,hourly; !- [J]
Output:Meter:Cumulative,InteriorLights:Electricity:SpaceType:SINGLE LIGHT LPD,hourly; !- [J]
Output:Meter,General:InteriorLights:Electricity:Zone:THERMAL ZONE: SPACE 103,hourly; !- [J]
Output:Meter:Cumulative,General:InteriorLights:Electricity:Zone:THERMAL ZONE: SPACE 103,hourly; !- [J]
Output:Meter,General:InteriorLights:Electricity:SpaceType:SINGLE LIGHT LPD,hourly; !- [J]
Output:Meter:Cumulative,General:InteriorLights:Electricity:SpaceType:SINGLE LIGHT LPD,hourly; !- [J]
Output:Meter,InteriorEquipment:Electricity,hourly; !- [J]
Output:Meter:Cumulative,InteriorEquipment:Electricity,hourly; !- [J]
Output:Meter,InteriorEquipment:Electricity:Zone:THERMAL ZONE: SPACE 102,hourly; !- [J]
Output:Meter:Cumulative,InteriorEquipment:Electricity:Zone:THERMAL ZONE: SPACE 102,hourly; !- [J]
Output:Meter,InteriorEquipment:Electricity:SpaceType:MULTIPLELIGHTS ONE LPD ONE LOAD X5 MULTIPLIER SAME SCHEDULE,hourly; !- [J]
Output:Meter:Cumulative,InteriorEquipment:Electricity:SpaceType:MULTIPLELIGHTS ONE LPD ONE LOAD X5 MULTIPLIER SAME SCHEDULE,hourly; !- [J]
Output:Meter,ElectricEquipment:InteriorEquipment:Electricity,hourly; !- [J]
Output:Meter:Cumulative,ElectricEquipment:InteriorEquipment:Electricity,hourly; !- [J]
Output:Meter,ElectricEquipment:InteriorEquipment:Electricity:Zone:THERMAL ZONE: SPACE 102,hourly; !- [J]
Output:Meter:Cumulative,ElectricEquipment:InteriorEquipment:Electricity:Zone:THERMAL ZONE: SPACE 102,hourly; !- [J]
Output:Meter,ElectricEquipment:InteriorEquipment:Electricity:SpaceType:MULTIPLELIGHTS ONE LPD ONE LOAD X5 MULTIPLIER SAME SCHEDULE,hourly; !- [J]
Output:Meter:Cumulative,ElectricEquipment:InteriorEquipment:Electricity:SpaceType:MULTIPLELIGHTS ONE LPD ONE LOAD X5 MULTIPLIER SAME SCHEDULE,hourly; !- [J]
Output:Meter,InteriorEquipment:Electricity:Zone:THERMAL ZONE: SPACE 103,hourly; !- [J]
Output:Meter:Cumulative,InteriorEquipment:Electricity:Zone:THERMAL ZONE: SPACE 103,hourly; !- [J]
Output:Meter,InteriorEquipment:Electricity:SpaceType:SINGLE LIGHT LPD,hourly; !- [J]
Output:Meter:Cumulative,InteriorEquipment:Electricity:SpaceType:SINGLE LIGHT LPD,hourly; !- [J]
Output:Meter,ElectricEquipment:InteriorEquipment:Electricity:Zone:THERMAL ZONE: SPACE 103,hourly; !- [J]
Output:Meter:Cumulative,ElectricEquipment:InteriorEquipment:Electricity:Zone:THERMAL ZONE: SPACE 103,hourly; !- [J]
Output:Meter,ElectricEquipment:InteriorEquipment:Electricity:SpaceType:SINGLE LIGHT LPD,hourly; !- [J]
Output:Meter:Cumulative,ElectricEquipment:InteriorEquipment:Electricity:SpaceType:SINGLE LIGHT LPD,hourly; !- [J]
Output:Meter,EnergyTransfer:Facility,hourly; !- [J]
Output:Meter:Cumulative,EnergyTransfer:Facility,hourly; !- [J]
Output:Meter,EnergyTransfer:Building,hourly; !- [J]
Output:Meter:Cumulative,EnergyTransfer:Building,hourly; !- [J]
Output:Meter,EnergyTransfer:Zone:THERMAL ZONE: SPACE 101,hourly; !- [J]
Output:Meter:Cumulative,EnergyTransfer:Zone:THERMAL ZONE: SPACE 101,hourly; !- [J]
Output:Meter,Heating:EnergyTransfer,hourly; !- [J]
Output:Meter:Cumulative,Heating:EnergyTransfer,hourly; !- [J]
Output:Meter,Heating:EnergyTransfer:Zone:THERMAL ZONE: SPACE 101,hourly; !- [J]
Output:Meter:Cumulative,Heating:EnergyTransfer:Zone:THERMAL ZONE: SPACE 101,hourly; !- [J]
Output:Meter,General:Heating:EnergyTransfer,hourly; !- [J]
Output:Meter:Cumulative,General:Heating:EnergyTransfer,hourly; !- [J]
Output:Meter,General:Heating:EnergyTransfer:Zone:THERMAL ZONE: SPACE 101,hourly; !- [J]
Output:Meter:Cumulative,General:Heating:EnergyTransfer:Zone:THERMAL ZONE: SPACE 101,hourly; !- [J]
Output:Meter,Cooling:EnergyTransfer,hourly; !- [J]
Output:Meter:Cumulative,Cooling:EnergyTransfer,hourly; !- [J]
Output:Meter,Cooling:EnergyTransfer:Zone:THERMAL ZONE: SPACE 101,hourly; !- [J]
Output:Meter:Cumulative,Cooling:EnergyTransfer:Zone:THERMAL ZONE: SPACE 101,hourly; !- [J]
Output:Meter,General:Cooling:EnergyTransfer,hourly; !- [J]
Output:Meter:Cumulative,General:Cooling:EnergyTransfer,hourly; !- [J]
Output:Meter,General:Cooling:EnergyTransfer:Zone:THERMAL ZONE: SPACE 101,hourly; !- [J]
Output:Meter:Cumulative,General:Cooling:EnergyTransfer:Zone:THERMAL ZONE: SPACE 101,hourly; !- [J]
Output:Meter,EnergyTransfer:Zone:THERMAL ZONE: SPACE 102,hourly; !- [J]
Output:Meter:Cumulative,EnergyTransfer:Zone:THERMAL ZONE: SPACE 102,hourly; !- [J]
Output:Meter,Heating:EnergyTransfer:Zone:THERMAL ZONE: SPACE 102,hourly; !- [J]
Output:Meter:Cumulative,Heating:EnergyTransfer:Zone:THERMAL ZONE: SPACE 102,hourly; !- [J]
Output:Meter,General:Heating:EnergyTransfer:Zone:THERMAL ZONE: SPACE 102,hourly; !- [J]
Output:Meter:Cumulative,General:Heating:EnergyTransfer:Zone:THERMAL ZONE: SPACE 102,hourly; !- [J]
Output:Meter,Cooling:EnergyTransfer:Zone:THERMAL ZONE: SPACE 102,hourly; !- [J]
Output:Meter:Cumulative,Cooling:EnergyTransfer:Zone:THERMAL ZONE: SPACE 102,hourly; !- [J]
Output:Meter,General:Cooling:EnergyTransfer:Zone:THERMAL ZONE: SPACE 102,hourly; !- [J]
Output:Meter:Cumulative,General:Cooling:EnergyTransfer:Zone:THERMAL ZONE: SPACE 102,hourly; !- [J]
Output:Meter,EnergyTransfer:Zone:THERMAL ZONE: SPACE 103,hourly; !- [J]
Output:Meter:Cumulative,EnergyTransfer:Zone:THERMAL ZONE: SPACE 103,hourly; !- [J]
Output:Meter,Heating:EnergyTransfer:Zone:THERMAL ZONE: SPACE 103,hourly; !- [J]
Output:Meter:Cumulative,Heating:EnergyTransfer:Zone:THERMAL ZONE: SPACE 103,hourly; !- [J]
Output:Meter,General:Heating:EnergyTransfer:Zone:THERMAL ZONE: SPACE 103,hourly; !- [J]
Output:Meter:Cumulative,General:Heating:EnergyTransfer:Zone:THERMAL ZONE: SPACE 103,hourly; !- [J]
Output:Meter,Cooling:EnergyTransfer:Zone:THERMAL ZONE: SPACE 103,hourly; !- [J]
Output:Meter:Cumulative,Cooling:EnergyTransfer:Zone:THERMAL ZONE: SPACE 103,hourly; !- [J]
Output:Meter,General:Cooling:EnergyTransfer:Zone:THERMAL ZONE: SPACE 103,hourly; !- [J]
Output:Meter:Cumulative,General:Cooling:EnergyTransfer:Zone:THERMAL ZONE: SPACE 103,hourly; !- [J]
Output:Meter,EnergyTransfer:Zone:THERMAL ZONE: SPACE 104,hourly; !- [J]
Output:Meter:Cumulative,EnergyTransfer:Zone:THERMAL ZONE: SPACE 104,hourly; !- [J]
Output:Meter,Heating:EnergyTransfer:Zone:THERMAL ZONE: SPACE 104,hourly; !- [J]
Output:Meter:Cumulative,Heating:EnergyTransfer:Zone:THERMAL ZONE: SPACE 104,hourly; !- [J]
Output:Meter,General:Heating:EnergyTransfer:Zone:THERMAL ZONE: SPACE 104,hourly; !- [J]
Output:Meter:Cumulative,General:Heating:EnergyTransfer:Zone:THERMAL ZONE: SPACE 104,hourly; !- [J]
Output:Meter,Cooling:EnergyTransfer:Zone:THERMAL ZONE: SPACE 104,hourly; !- [J]
Output:Meter:Cumulative,Cooling:EnergyTransfer:Zone:THERMAL ZONE: SPACE 104,hourly; !- [J]
Output:Meter,General:Cooling:EnergyTransfer:Zone:THERMAL ZONE: SPACE 104,hourly; !- [J]
Output:Meter:Cumulative,General:Cooling:EnergyTransfer:Zone:THERMAL ZONE: SPACE 104,hourly; !- [J]
Output:Meter,ElectricityPurchased:Facility,hourly; !- [J]
Output:Meter:Cumulative,ElectricityPurchased:Facility,hourly; !- [J]
Output:Meter,ElectricityPurchased:Plant,hourly; !- [J]
Output:Meter:Cumulative,ElectricityPurchased:Plant,hourly; !- [J]
Output:Meter,Cogeneration:ElectricityPurchased,hourly; !- [J]
Output:Meter:Cumulative,Cogeneration:ElectricityPurchased,hourly; !- [J]
Output:Meter,General:Cogeneration:ElectricityPurchased,hourly; !- [J]
Output:Meter:Cumulative,General:Cogeneration:ElectricityPurchased,hourly; !- [J]
Output:Meter,ElectricitySurplusSold:Facility,hourly; !- [J]
Output:Meter:Cumulative,ElectricitySurplusSold:Facility,hourly; !- [J]
Output:Meter,ElectricitySurplusSold:Plant,hourly; !- [J]
Output:Meter:Cumulative,ElectricitySurplusSold:Plant,hourly; !- [J]
Output:Meter,Cogeneration:ElectricitySurplusSold,hourly; !- [J]
Output:Meter:Cumulative,Cogeneration:ElectricitySurplusSold,hourly; !- [J]
Output:Meter,General:Cogeneration:ElectricitySurplusSold,hourly; !- [J]
Output:Meter:Cumulative,General:Cogeneration:ElectricitySurplusSold,hourly; !- [J]
Output:Meter,ElectricityNet:Facility,hourly; !- [J]
Output:Meter:Cumulative,ElectricityNet:Facility,hourly; !- [J]
Output:Meter,ElectricityNet:Plant,hourly; !- [J]
Output:Meter:Cumulative,ElectricityNet:Plant,hourly; !- [J]
Output:Meter,Cogeneration:ElectricityNet,hourly; !- [J]
Output:Meter:Cumulative,Cogeneration:ElectricityNet,hourly; !- [J]
Output:Meter,General:Cogeneration:ElectricityNet,hourly; !- [J]
Output:Meter:Cumulative,General:Cogeneration:ElectricityNet,hourly; !- [J]
Output:Meter,Carbon Equivalent:Facility,hourly; !- [kg]
Output:Meter:Cumulative,Carbon Equivalent:Facility,hourly; !- [kg]
Output:Meter,CarbonEquivalentEmissions:Carbon Equivalent,hourly; !- [kg]
Output:Meter:Cumulative,CarbonEquivalentEmissions:Carbon Equivalent,hourly; !- [kg]
